
     RDKit          3D

 39 42  0  0  1  0  0  0  0  0999 V2000
   41.1662    0.6237  -14.0731 O   0  0  0  0  0  0  0  0  0  0  0  0
   41.6347    1.7319  -14.3460 C   0  0  0  0  0  0  0  0  0  0  0  0
   40.9440    2.9094  -14.4518 N   0  0  0  0  0  0  0  0  0  0  0  0
   39.5455    3.1676  -14.1178 C   0  0  2  0  0  0  0  0  0  0  0  0
   38.8342    4.1235  -15.0640 C   0  0  0  0  0  0  0  0  0  0  0  0
   37.8539    4.9526  -14.2208 C   0  0  1  0  0  0  0  0  0  0  0  0
   36.4365    5.0795  -14.8222 C   0  0  0  0  0  0  0  0  0  0  0  0
   35.5603    6.1602  -14.3852 N   0  0  0  0  0  0  0  0  0  0  0  0
   34.2690    5.7580  -13.8232 C   0  0  0  0  0  2  0  0  0  0  0  0
   33.8238    6.3364  -12.6057 C   0  0  0  0  0  3  0  0  0  0  0  0
   32.3034    7.1253  -12.5315 Cl  0  0  0  0  0  0  0  0  0  0  0  0
   35.0067    7.0560  -12.3031 C   0  0  0  0  0  2  0  0  0  0  0  0
   36.1441    7.0245  -13.2318 N   0  0  0  0  0  2  0  0  0  0  0  0
   37.8177    4.2456  -12.8578 C   0  0  0  0  0  0  0  0  0  0  0  0
   39.2057    3.6294  -12.6956 C   0  0  1  0  0  0  0  0  0  0  0  0
   39.1623    2.5221  -11.7947 O   0  0  0  0  0  0  0  0  0  0  0  0
   43.1247    1.8703  -14.5584 C   0  0  0  0  0  3  0  0  0  0  0  0
   43.6998    2.0811  -15.8334 C   0  0  0  0  0  2  0  0  0  0  0  0
   45.1018    2.5324  -16.0254 C   0  0  0  0  0  2  0  0  0  0  0  0
   46.0676    2.6548  -14.9774 N   0  0  1  0  0  0  0  0  0  0  0  0
   46.7421    3.9292  -14.8155 C   0  0  0  0  0  2  0  0  0  0  0  0
   46.8010    4.1948  -13.3421 C   0  0  0  0  0  2  0  0  0  0  0  0
   46.0925    3.1862  -12.5860 N   0  0  0  0  0  3  0  0  0  0  0  0
   45.4013    2.5039  -13.6634 C   0  0  0  0  0  3  0  0  0  0  0  0
   44.0683    2.0186  -13.4510 N   0  0  0  0  0  3  0  0  0  0  0  0
   41.4732    3.7629  -14.5771 H   0  0  0  0  0  0  0  0  0  0  0  0
   39.0803    2.1778  -14.2448 H   0  0  0  0  0  0  0  0  0  0  0  0
   38.3199    3.5050  -15.8056 H   0  0  0  0  0  0  0  0  0  0  0  0
   39.5199    4.7852  -15.6046 H   0  0  0  0  0  0  0  0  0  0  0  0
   38.2778    5.9539  -14.0690 H   0  0  0  0  0  0  0  0  0  0  0  0
   35.9076    4.1333  -14.6382 H   0  0  0  0  0  0  0  0  0  0  0  0
   36.5200    5.1422  -15.9160 H   0  0  0  0  0  0  0  0  0  0  0  0
   37.0385    3.4689  -12.8358 H   0  0  0  0  0  0  0  0  0  0  0  0
   37.5864    4.9357  -12.0394 H   0  0  0  0  0  0  0  0  0  0  0  0
   39.9274    4.3590  -12.3139 H   0  0  0  0  0  0  0  0  0  0  0  0
   40.0792    2.2081  -11.6591 H   0  0  0  0  0  0  0  0  0  0  0  0
   46.7782    1.9215  -15.0670 H   0  0  0  0  0  0  0  0  0  0  0  0
   45.4845    3.5007  -11.8347 H   0  0  0  0  0  0  0  0  0  0  0  0
   43.6355    2.0734  -12.5274 H   0  0  0  0  0  0  0  0  0  0  0  0
  1  2  2  0
  2  3  1  0
  2 17  1  0
  3 26  1  0
  4  5  1  0
  4 15  1  0
  4  3  1  0
  4 27  1  1
  5  6  1  0
  5 28  1  0
  5 29  1  0
  6  7  1  0
  6 14  1  0
  6 30  1  1
  7  8  1  0
  7 31  1  0
  7 32  1  0
  8 13  1  0
  8  9  1  0
  9 10  1  0
 10 11  1  0
 10 12  1  0
 12 13  1  0
 14 15  1  0
 14 33  1  0
 14 34  1  0
 15 16  1  0
 15 35  1  1
 16 36  1  0
 17 25  1  0
 17 18  1  0
 18 19  1  0
 20 19  1  0
 20 21  1  0
 20 24  1  0
 20 37  1  6
 21 22  1  0
 22 23  1  0
 23 24  1  0
 23 38  1  0
 24 25  1  0
 25 39  1  0
M  RAD  8   9   3  10   2  12   3  13   2  17   2  18   3  19   3  21   3
M  CHG  3  20   1  23   1  25   1
M  RAD  4  22   3  23   2  24   2  25   2
M  END
>  <docking_score>  (1) 
-7.6459999999999999

$$$$

     RDKit          3D

 39 42  0  0  1  0  0  0  0  0999 V2000
   39.8341    6.7382  -13.8457 O   0  0  0  0  0  0  0  0  0  0  0  0
   38.9758    5.8521  -13.8636 C   0  0  0  0  0  0  0  0  0  0  0  0
   39.0316    4.6719  -14.5555 N   0  0  0  0  0  0  0  0  0  0  0  0
   40.1608    4.1125  -15.2945 C   0  0  2  0  0  0  0  0  0  0  0  0
   41.4798    4.1187  -14.5360 C   0  0  0  0  0  0  0  0  0  0  0  0
   42.5928    4.3827  -15.5612 C   0  0  1  0  0  0  0  0  0  0  0  0
   43.8148    3.4453  -15.4394 C   0  0  0  0  0  0  0  0  0  0  0  0
   44.9872    3.8804  -14.6893 N   0  0  0  0  0  0  0  0  0  0  0  0
   44.7288    4.4903  -13.3830 C   0  0  0  0  0  2  0  0  0  0  0  0
   45.4808    4.0730  -12.2536 C   0  0  0  0  0  3  0  0  0  0  0  0
   46.3518    5.2219  -11.3257 Cl  0  0  0  0  0  0  0  0  0  0  0  0
   46.1698    3.0039  -12.8790 C   0  0  0  0  0  2  0  0  0  0  0  0
   45.9599    2.7292  -14.3064 N   0  0  0  0  0  2  0  0  0  0  0  0
   41.9085    4.2285  -16.9277 C   0  0  0  0  0  0  0  0  0  0  0  0
   40.4616    4.6587  -16.6954 C   0  0  1  0  0  0  0  0  0  0  0  0
   39.5993    4.0701  -17.6700 O   0  0  0  0  0  0  0  0  0  0  0  0
   37.7298    6.0157  -13.0238 C   0  0  0  0  0  3  0  0  0  0  0  0
   36.5141    6.5147  -13.5471 C   0  0  0  0  0  2  0  0  0  0  0  0
   35.2141    6.3859  -12.8403 C   0  0  0  0  0  2  0  0  0  0  0  0
   35.0591    5.8945  -11.5060 N   0  0  1  0  0  0  0  0  0  0  0  0
   34.1417    4.7920  -11.2864 C   0  0  0  0  0  2  0  0  0  0  0  0
   34.8178    3.8612  -10.3265 C   0  0  0  0  0  2  0  0  0  0  0  0
   36.1659    4.2881  -10.0240 N   0  0  0  0  0  3  0  0  0  0  0  0
   36.3375    5.3135  -11.0354 C   0  0  0  0  0  3  0  0  0  0  0  0
   37.6134    5.4705  -11.6718 N   0  0  0  0  0  3  0  0  0  0  0  0
   38.3022    3.9894  -14.3936 H   0  0  0  0  0  0  0  0  0  0  0  0
   39.8658    3.0600  -15.4257 H   0  0  0  0  0  0  0  0  0  0  0  0
   41.5757    3.1349  -14.0670 H   0  0  0  0  0  0  0  0  0  0  0  0
   41.5155    4.8693  -13.7388 H   0  0  0  0  0  0  0  0  0  0  0  0
   42.9211    5.4259  -15.4655 H   0  0  0  0  0  0  0  0  0  0  0  0
   44.1496    3.1961  -16.4566 H   0  0  0  0  0  0  0  0  0  0  0  0
   43.4854    2.4874  -15.0135 H   0  0  0  0  0  0  0  0  0  0  0  0
   41.9567    3.1867  -17.2786 H   0  0  0  0  0  0  0  0  0  0  0  0
   42.3889    4.8359  -17.7021 H   0  0  0  0  0  0  0  0  0  0  0  0
   40.3524    5.7468  -16.7477 H   0  0  0  0  0  0  0  0  0  0  0  0
   38.6837    4.1135  -17.3274 H   0  0  0  0  0  0  0  0  0  0  0  0
   34.8001    6.6613  -10.8769 H   0  0  0  0  0  0  0  0  0  0  0  0
   36.8951    3.5800  -10.0211 H   0  0  0  0  0  0  0  0  0  0  0  0
   38.4203    4.9267  -11.3611 H   0  0  0  0  0  0  0  0  0  0  0  0
  1  2  2  0
  2  3  1  0
  2 17  1  0
  3 26  1  0
  4  5  1  0
  4 15  1  0
  4  3  1  0
  4 27  1  6
  5  6  1  0
  5 28  1  0
  5 29  1  0
  6  7  1  0
  6 14  1  0
  6 30  1  1
  7  8  1  0
  7 31  1  0
  7 32  1  0
  8 13  1  0
  8  9  1  0
  9 10  1  0
 10 11  1  0
 10 12  1  0
 12 13  1  0
 14 15  1  0
 14 33  1  0
 14 34  1  0
 15 16  1  0
 15 35  1  1
 16 36  1  0
 17 25  1  0
 17 18  1  0
 18 19  1  0
 20 19  1  0
 20 21  1  0
 20 24  1  0
 20 37  1  1
 21 22  1  0
 22 23  1  0
 23 24  1  0
 23 38  1  0
 24 25  1  0
 25 39  1  0
M  RAD  8   9   3  10   2  12   3  13   2  17   2  18   3  19   3  21   3
M  CHG  3  20   1  23   1  25   1
M  RAD  4  22   3  23   2  24   2  25   2
M  END
>  <docking_score>  (2) 
-7.5789999999999997

$$$$

     RDKit          3D

 39 42  0  0  1  0  0  0  0  0999 V2000
   41.3765    4.4935  -16.4092 O   0  0  0  0  0  0  0  0  0  0  0  0
   41.5228    4.6278  -15.1915 C   0  0  0  0  0  0  0  0  0  0  0  0
   40.5778    5.0490  -14.2947 N   0  0  0  0  0  0  0  0  0  0  0  0
   39.1545    5.2822  -14.5275 C   0  0  2  0  0  0  0  0  0  0  0  0
   38.4820    6.1757  -13.4957 C   0  0  0  0  0  0  0  0  0  0  0  0
   37.0523    5.6491  -13.3009 C   0  0  1  0  0  0  0  0  0  0  0  0
   35.9581    6.7398  -13.3124 C   0  0  0  0  0  0  0  0  0  0  0  0
   34.9386    6.7515  -12.2698 N   0  0  0  0  0  0  0  0  0  0  0  0
   33.5655    6.4870  -12.7057 C   0  0  0  0  0  2  0  0  0  0  0  0
   32.7700    5.5549  -11.9892 C   0  0  0  0  0  3  0  0  0  0  0  0
   31.2486    6.0277  -11.3557 Cl  0  0  0  0  0  0  0  0  0  0  0  0
   33.7825    5.0859  -11.1153 C   0  0  0  0  0  2  0  0  0  0  0  0
   35.1326    5.6603  -11.1791 N   0  0  0  0  0  2  0  0  0  0  0  0
   36.8475    4.6449  -14.4449 C   0  0  0  0  0  0  0  0  0  0  0  0
   38.2356    4.0695  -14.7184 C   0  0  1  0  0  0  0  0  0  0  0  0
   38.3188    3.5698  -16.0537 O   0  0  0  0  0  0  0  0  0  0  0  0
   42.8504    4.2687  -14.5645 C   0  0  0  0  0  3  0  0  0  0  0  0
   44.0127    4.0107  -15.3283 C   0  0  0  0  0  2  0  0  0  0  0  0
   45.3764    3.9728  -14.7409 C   0  0  0  0  0  2  0  0  0  0  0  0
   45.6606    4.0343  -13.3404 N   0  0  1  0  0  0  0  0  0  0  0  0
   46.5808    5.0549  -12.8743 C   0  0  0  0  0  2  0  0  0  0  0  0
   45.9941    5.6122  -11.6134 C   0  0  0  0  0  2  0  0  0  0  0  0
   44.6899    5.0529  -11.3350 N   0  0  0  0  0  3  0  0  0  0  0  0
   44.4295    4.3836  -12.5951 C   0  0  0  0  0  3  0  0  0  0  0  0
   43.0973    4.3740  -13.1270 N   0  0  0  0  0  3  0  0  0  0  0  0
   40.8049    5.0103  -13.3093 H   0  0  0  0  0  0  0  0  0  0  0  0
   39.1526    5.8296  -15.4826 H   0  0  0  0  0  0  0  0  0  0  0  0
   38.4959    7.1906  -13.9041 H   0  0  0  0  0  0  0  0  0  0  0  0
   39.0095    6.1990  -12.5358 H   0  0  0  0  0  0  0  0  0  0  0  0
   37.0059    5.0945  -12.3545 H   0  0  0  0  0  0  0  0  0  0  0  0
   35.4381    6.6836  -14.2796 H   0  0  0  0  0  0  0  0  0  0  0  0
   36.4416    7.7265  -13.3145 H   0  0  0  0  0  0  0  0  0  0  0  0
   36.4455    5.1423  -15.3404 H   0  0  0  0  0  0  0  0  0  0  0  0
   36.1314    3.8589  -14.1827 H   0  0  0  0  0  0  0  0  0  0  0  0
   38.4764    3.2550  -14.0275 H   0  0  0  0  0  0  0  0  0  0  0  0
   39.2096    3.7811  -16.3993 H   0  0  0  0  0  0  0  0  0  0  0  0
   45.9931    3.1230  -13.0089 H   0  0  0  0  0  0  0  0  0  0  0  0
   43.9553    5.6920  -11.0434 H   0  0  0  0  0  0  0  0  0  0  0  0
   42.3192    4.7585  -12.5884 H   0  0  0  0  0  0  0  0  0  0  0  0
  1  2  2  0
  2  3  1  0
  2 17  1  0
  3 26  1  0
  4  5  1  0
  4 15  1  0
  4  3  1  0
  4 27  1  6
  5  6  1  0
  5 28  1  0
  5 29  1  0
  6  7  1  0
  6 14  1  0
  6 30  1  1
  7  8  1  0
  7 31  1  0
  7 32  1  0
  8 13  1  0
  8  9  1  0
  9 10  1  0
 10 11  1  0
 10 12  1  0
 12 13  1  0
 14 15  1  0
 14 33  1  0
 14 34  1  0
 15 16  1  0
 15 35  1  1
 16 36  1  0
 17 25  1  0
 17 18  1  0
 18 19  1  0
 20 19  1  0
 20 21  1  0
 20 24  1  0
 20 37  1  1
 21 22  1  0
 22 23  1  0
 23 24  1  0
 23 38  1  0
 24 25  1  0
 25 39  1  0
M  RAD  8   9   3  10   2  12   3  13   2  17   2  18   3  19   3  21   3
M  CHG  3  20   1  23   1  25   1
M  RAD  4  22   3  23   2  24   2  25   2
M  END
>  <docking_score>  (3) 
-7.4669999999999996

$$$$
